SegmentosBT_2022124950_IJAU11_--MBS-1--T--.dss
New "Line.SBT_618240" phases=4 bus1="140381609.1.2.3.4" bus2="172691393.1.2.3.4" linecode="BT810_BT810_4_3_4_4" length=0.04303 units=km
New "Line.SBT_618261" phases=4 bus1="714224.1.2.3.4" bus2="140381609.1.2.3.4" linecode="BT803_BT803_4_3_4_4" length=0.04247 units=km
New "Line.SBT_618275" phases=4 bus1="714238.1.2.3.4" bus2="714224.1.2.3.4" linecode="BT803_BT803_4_3_4_4" length=0.04116 units=km
New "Line.SBT_618282" phases=4 bus1="714196.1.2.3.4" bus2="714238.1.2.3.4" linecode="BT518_BT518_7_3_1_4" length=0.00050 units=km
New "Line.SBT_618289" phases=4 bus1="714238.1.2.3.4" bus2="714252.1.2.3.4" linecode="BT803_BT803_4_3_4_4" length=0.03001 units=km
New "Line.SBT_618296" phases=4 bus1="714252.1.2.3.4" bus2="714280.1.2.3.4" linecode="BT803_BT803_4_3_4_4" length=0.02550 units=km
New "Line.SBT_618303" phases=4 bus1="714259.1.2.3.4" bus2="714266.1.2.3.4" linecode="BT108_BT107_7_3_1_4" length=0.03637 units=km
New "Line.SBT_618310" phases=4 bus1="714266.1.2.3.4" bus2="714273.1.2.3.4" linecode="BT108_BT107_7_3_1_4" length=0.04256 units=km
New "Line.SBT_618317" phases=4 bus1="714280.1.2.3.4" bus2="714259.1.2.3.4" linecode="BT803_BT803_4_3_4_4" length=0.02562 units=km
New "Line.SBT_618527" phases=4 bus1="714567.1.2.3.4" bus2="714560.1.2.3.4" linecode="BT108_BT107_7_3_1_4" length=0.03277 units=km
New "Line.SBT_618534" phases=4 bus1="714574.1.2.3.4" bus2="714567.1.2.3.4" linecode="BT108_BT107_7_3_1_4" length=0.02944 units=km
New "Line.SBT_618541" phases=3 bus1="714574.1.2.4" bus2="714581.1.2.4" linecode="BT810_BT810_4_2_4_3" length=0.03514 units=km
New "Line.SBT_618548" phases=3 bus1="714581.1.2.4" bus2="714588.1.2.4" linecode="BT810_BT810_4_2_4_3" length=0.02917 units=km
New "Line.SBT_618555" phases=3 bus1="714588.1.2.4" bus2="714595.1.2.4" linecode="BT810_BT810_4_2_4_3" length=0.02503 units=km
New "Line.SBT_618562" phases=3 bus1="714595.1.2.4" bus2="3923612.1.2.4" linecode="BT808_BT808_4_2_3_3" length=0.03907 units=km
New "Line.SBT_618569" phases=4 bus1="714602.1.2.3.4" bus2="714574.1.2.3.4" linecode="BT108_BT107_7_3_1_4" length=0.02908 units=km
New "Line.SBT_618576" phases=4 bus1="714553.1.2.3.4" bus2="714602.1.2.3.4" linecode="BT518_BT518_7_3_1_4" length=0.00050 units=km
New "Line.SBT_618583" phases=4 bus1="714602.1.2.3.4" bus2="714609.1.2.3.4" linecode="BT108_BT107_7_3_1_4" length=0.03054 units=km
New "Line.SBT_618590" phases=4 bus1="714609.1.2.3.4" bus2="714616.1.2.3.4" linecode="BT108_BT107_7_3_1_4" length=0.02582 units=km
New "Line.SBT_618597" phases=4 bus1="714616.1.2.3.4" bus2="714623.1.2.3.4" linecode="BT108_BT107_7_3_1_4" length=0.02781 units=km
New "Line.SBT_618849" phases=4 bus1="714889.1.2.3.4" bus2="714945.1.2.3.4" linecode="BT107_BT106_7_3_1_4" length=0.03958 units=km
New "Line.SBT_618856" phases=4 bus1="714903.1.2.3.4" bus2="714889.1.2.3.4" linecode="BT108_BT107_7_3_1_4" length=0.02342 units=km
New "Line.SBT_618863" phases=4 bus1="714910.1.2.3.4" bus2="714903.1.2.3.4" linecode="BT108_BT107_7_3_1_4" length=0.02248 units=km
New "Line.SBT_618870" phases=4 bus1="714924.1.2.3.4" bus2="714966.1.2.3.4" linecode="BT107_BT106_7_3_1_4" length=0.02974 units=km
New "Line.SBT_618877" phases=4 bus1="714882.1.2.3.4" bus2="714931.1.2.3.4" linecode="BT518_BT518_7_3_1_4" length=0.00050 units=km
New "Line.SBT_618884" phases=4 bus1="714931.1.2.3.4" bus2="715008.1.2.3.4" linecode="BT108_BT107_7_3_1_4" length=0.03010 units=km
New "Line.SBT_618891" phases=4 bus1="714931.1.2.3.4" bus2="715015.1.2.3.4" linecode="BT108_BT107_7_3_1_4" length=0.02026 units=km
New "Line.SBT_618898" phases=4 bus1="714952.1.2.3.4" bus2="714973.1.2.3.4" linecode="BT108_BT107_7_3_1_4" length=0.03455 units=km
New "Line.SBT_618905" phases=4 bus1="714959.1.2.3.4" bus2="714994.1.2.3.4" linecode="BT107_BT106_7_3_1_4" length=0.03864 units=km
New "Line.SBT_618912" phases=4 bus1="714973.1.2.3.4" bus2="2768549.1.2.3.4" linecode="BT108_BT107_7_3_1_4" length=0.00361 units=km
New "Line.SBT_618919" phases=4 bus1="714980.1.2.3.4" bus2="715001.1.2.3.4" linecode="BT107_BT106_7_3_1_4" length=0.03958 units=km
New "Line.SBT_618926" phases=4 bus1="715008.1.2.3.4" bus2="714917.1.2.3.4" linecode="BT107_BT106_7_3_1_4" length=0.01656 units=km
New "Line.SBT_618933" phases=4 bus1="715008.1.2.3.4" bus2="714952.1.2.3.4" linecode="BT108_BT107_7_3_1_4" length=0.00539 units=km
New "Line.SBT_618940" phases=4 bus1="715008.1.2.3.4" bus2="714959.1.2.3.4" linecode="BT107_BT106_7_3_1_4" length=0.00539 units=km
New "Line.SBT_618947" phases=4 bus1="715015.1.2.3.4" bus2="714896.1.2.3.4" linecode="BT107_BT106_7_3_1_4" length=0.01747 units=km
New "Line.SBT_618954" phases=4 bus1="715015.1.2.3.4" bus2="714910.1.2.3.4" linecode="BT108_BT107_7_3_1_4" length=0.00895 units=km
New "Line.SBT_618961" phases=4 bus1="715015.1.2.3.4" bus2="714924.1.2.3.4" linecode="BT107_BT106_7_3_1_4" length=0.00539 units=km
New "Line.SBT_619542" phases=4 bus1="715596.1.2.3.4" bus2="715582.1.2.3.4" linecode="BT107_BT106_7_3_1_4" length=0.03678 units=km
New "Line.SBT_619549" phases=4 bus1="715617.1.2.3.4" bus2="715589.1.2.3.4" linecode="BT107_BT106_7_3_1_4" length=0.03363 units=km
New "Line.SBT_619556" phases=4 bus1="715624.1.2.3.4" bus2="715715.1.2.3.4" linecode="BT108_BT107_7_3_1_4" length=0.03586 units=km
New "Line.SBT_619563" phases=4 bus1="715575.1.2.3.4" bus2="715645.1.2.3.4" linecode="BT518_BT518_7_3_1_4" length=0.00050 units=km
New "Line.SBT_619570" phases=4 bus1="715645.1.2.3.4" bus2="715708.1.2.3.4" linecode="BT108_BT107_7_3_1_4" length=0.03325 units=km
New "Line.SBT_619577" phases=4 bus1="715645.1.2.3.4" bus2="715722.1.2.3.4" linecode="BT108_BT107_7_3_1_4" length=0.01524 units=km
New "Line.SBT_619584" phases=4 bus1="715652.1.2.3.4" bus2="715610.1.2.3.4" linecode="BT107_BT106_7_3_1_4" length=0.03548 units=km
New "Line.SBT_619591" phases=4 bus1="715666.1.2.3.4" bus2="715680.1.2.3.4" linecode="BT108_BT107_7_3_1_4" length=0.03641 units=km
New "Line.SBT_619598" phases=4 bus1="715673.1.2.3.4" bus2="715631.1.2.3.4" linecode="BT107_BT106_7_3_1_4" length=0.03548 units=km
New "Line.SBT_619605" phases=4 bus1="715680.1.2.3.4" bus2="2768556.1.2.3.4" linecode="BT108_BT107_7_3_1_4" length=0.00316 units=km
New "Line.SBT_619612" phases=4 bus1="715708.1.2.3.4" bus2="715652.1.2.3.4" linecode="BT107_BT106_7_3_1_4" length=0.00447 units=km
New "Line.SBT_619619" phases=4 bus1="715708.1.2.3.4" bus2="715666.1.2.3.4" linecode="BT108_BT107_7_3_1_4" length=0.00447 units=km
New "Line.SBT_619626" phases=4 bus1="715708.1.2.3.4" bus2="715687.1.2.3.4" linecode="BT107_BT106_7_3_1_4" length=0.02917 units=km
New "Line.SBT_619633" phases=4 bus1="715715.1.2.3.4" bus2="715596.1.2.3.4" linecode="BT107_BT106_7_3_1_4" length=0.00583 units=km
New "Line.SBT_619640" phases=4 bus1="715715.1.2.3.4" bus2="715603.1.2.3.4" linecode="BT108_BT107_7_3_1_4" length=0.00361 units=km
New "Line.SBT_619647" phases=4 bus1="715715.1.2.3.4" bus2="715638.1.2.3.4" linecode="BT107_BT106_7_3_1_4" length=0.02658 units=km
New "Line.SBT_619654" phases=4 bus1="715722.1.2.3.4" bus2="715617.1.2.3.4" linecode="BT107_BT106_7_3_1_4" length=0.01457 units=km
New "Line.SBT_619661" phases=4 bus1="715722.1.2.3.4" bus2="715624.1.2.3.4" linecode="BT108_BT107_7_3_1_4" length=0.02155 units=km
New "Line.SBT_619668" phases=4 bus1="715722.1.2.3.4" bus2="715659.1.2.3.4" linecode="BT107_BT106_7_3_1_4" length=0.02194 units=km
New "Line.SBT_619675" phases=4 bus1="715743.1.2.3.4" bus2="715736.1.2.3.4" linecode="BT803_BT803_4_3_4_4" length=0.02730 units=km
New "Line.SBT_619682" phases=4 bus1="715743.1.2.3.4" bus2="715750.1.2.3.4" linecode="BT809_BT809_4_3_4_4" length=0.00633 units=km
New "Line.SBT_619689" phases=4 bus1="715750.1.2.3.4" bus2="715757.1.2.3.4" linecode="BT107_BT107_7_3_1_4" length=0.03455 units=km
New "Line.SBT_619696" phases=4 bus1="715764.1.2.3.4" bus2="715743.1.2.3.4" linecode="BT803_BT803_4_3_4_4" length=0.03363 units=km
New "Line.SBT_619703" phases=4 bus1="715771.1.2.3.4" bus2="715764.1.2.3.4" linecode="BT803_BT803_4_3_4_4" length=0.03232 units=km
New "Line.SBT_619710" phases=4 bus1="715729.1.2.3.4" bus2="715771.1.2.3.4" linecode="BT518_BT518_7_3_1_4" length=0.00050 units=km
New "Line.SBT_619717" phases=4 bus1="715771.1.2.3.4" bus2="715785.1.2.3.4" linecode="BT803_BT803_4_3_4_4" length=0.02601 units=km
New "Line.SBT_619724" phases=4 bus1="716142.1.2.3.4" bus2="716156.1.2.3.4" linecode="BT107_BT107_7_3_1_4" length=0.03759 units=km
New "Line.SBT_619731" phases=4 bus1="715785.1.2.3.4" bus2="2768584.1.2.3.4" linecode="BT803_BT803_4_3_4_4" length=0.00361 units=km
New "Line.SBT_619738" phases=4 bus1="715792.1.2.3.4" bus2="715799.1.2.3.4" linecode="BT809_BT809_4_3_4_4" length=0.03548 units=km
New "Line.SBT_619745" phases=4 bus1="716534.1.2.3.4" bus2="716520.1.2.3.4" linecode="BT107_BT107_7_3_1_4" length=0.00781 units=km
New "Line.SBT_619752" phases=4 bus1="715806.1.2.3.4" bus2="715813.1.2.3.4" linecode="BT803_BT803_4_3_4_4" length=0.03759 units=km
New "Line.SBT_619759" phases=4 bus1="715813.1.2.3.4" bus2="715820.1.2.3.4" linecode="BT803_BT803_4_3_4_4" length=0.03860 units=km
New "Line.SBT_619766" phases=3 bus1="715820.1.2.4" bus2="715827.1.2.4" linecode="BT106_BT106_7_2_1_3" length=0.03449 units=km
New "Line.SBT_619773" phases=3 bus1="715827.1.2.4" bus2="715834.1.2.4" linecode="BT106_BT106_7_2_1_3" length=0.03043 units=km
New "Line.SBT_619780" phases=3 bus1="715834.1.2.4" bus2="715841.1.2.4" linecode="BT106_BT106_7_2_1_3" length=0.03625 units=km
New "Line.SBT_620081" phases=4 bus1="716135.1.2.3.4" bus2="716121.1.2.3.4" linecode="BT108_BT108_7_3_1_4" length=0.04033 units=km
New "Line.SBT_620088" phases=4 bus1="716135.1.2.3.4" bus2="716142.1.2.3.4" linecode="BT809_BT809_4_3_4_4" length=0.01361 units=km
New "Line.SBT_620095" phases=4 bus1="716135.1.2.3.4" bus2="716128.1.2.3.4" linecode="BT107_BT107_7_3_1_4" length=0.03419 units=km
New "Line.SBT_620102" phases=4 bus1="716149.1.2.3.4" bus2="716135.1.2.3.4" linecode="BT108_BT108_7_3_1_4" length=0.04051 units=km
New "Line.SBT_620109" phases=4 bus1="716114.1.2.3.4" bus2="716149.1.2.3.4" linecode="BT518_BT518_7_3_1_4" length=0.00050 units=km
New "Line.SBT_620116" phases=4 bus1="716149.1.2.3.4" bus2="716163.1.2.3.4" linecode="BT108_BT108_7_3_1_4" length=0.03548 units=km
New "Line.SBT_620123" phases=4 bus1="716156.1.2.3.4" bus2="716170.1.2.3.4" linecode="BT107_BT107_7_3_1_4" length=0.04087 units=km
New "Line.SBT_620130" phases=4 bus1="716163.1.2.3.4" bus2="716177.1.2.3.4" linecode="BT108_BT108_7_3_1_4" length=0.03548 units=km
New "Line.SBT_620137" phases=4 bus1="716170.1.2.3.4" bus2="716184.1.2.3.4" linecode="BT107_BT107_7_3_1_4" length=0.03850 units=km
New "Line.SBT_620144" phases=4 bus1="718396.1.2.3.4" bus2="2989084.1.2.3.4" linecode="BT809_BT809_4_3_4_4" length=0.01171 units=km
New "Line.SBT_620403" phases=4 bus1="716499.1.2.3.4" bus2="716485.1.2.3.4" linecode="BT107_BT107_7_3_1_4" length=0.03197 units=km
New "Line.SBT_620410" phases=4 bus1="716513.1.2.3.4" bus2="716492.1.2.3.4" linecode="BT107_BT106_7_3_1_4" length=0.03325 units=km
New "Line.SBT_620417" phases=4 bus1="716520.1.2.3.4" bus2="716499.1.2.3.4" linecode="BT107_BT107_7_3_1_4" length=0.02509 units=km
New "Line.SBT_620424" phases=4 bus1="716541.1.2.3.4" bus2="716506.1.2.3.4" linecode="BT107_BT106_7_3_1_4" length=0.02917 units=km
New "Line.SBT_620431" phases=4 bus1="716548.1.2.3.4" bus2="716534.1.2.3.4" linecode="BT108_BT107_7_3_1_4" length=0.03325 units=km
New "Line.SBT_620438" phases=4 bus1="716555.1.2.3.4" bus2="716513.1.2.3.4" linecode="BT107_BT106_7_3_1_4" length=0.02917 units=km
New "Line.SBT_620445" phases=4 bus1="716562.1.2.3.4" bus2="716548.1.2.3.4" linecode="BT108_BT107_7_3_1_4" length=0.03140 units=km
New "Line.SBT_620452" phases=4 bus1="716562.1.2.3.4" bus2="716555.1.2.3.4" linecode="BT107_BT106_7_3_1_4" length=0.00762 units=km
New "Line.SBT_620459" phases=4 bus1="716569.1.2.3.4" bus2="716527.1.2.3.4" linecode="BT107_BT106_7_3_1_4" length=0.03048 units=km
New "Line.SBT_620466" phases=4 bus1="716576.1.2.3.4" bus2="716562.1.2.3.4" linecode="BT108_BT107_7_3_1_4" length=0.02286 units=km
New "Line.SBT_620473" phases=4 bus1="716478.1.2.3.4" bus2="716576.1.2.3.4" linecode="BT518_BT518_7_3_1_4" length=0.00050 units=km
New "Line.SBT_620480" phases=4 bus1="716576.1.2.3.4" bus2="716590.1.2.3.4" linecode="BT108_BT107_7_3_1_4" length=0.02956 units=km
New "Line.SBT_620487" phases=4 bus1="716583.1.2.3.4" bus2="716541.1.2.3.4" linecode="BT107_BT106_7_3_1_4" length=0.02658 units=km
New "Line.SBT_620494" phases=4 bus1="716590.1.2.3.4" bus2="716583.1.2.3.4" linecode="BT107_BT106_7_3_1_4" length=0.01030 units=km
New "Line.SBT_620501" phases=4 bus1="716590.1.2.3.4" bus2="716604.1.2.3.4" linecode="BT108_BT107_7_3_1_4" length=0.03232 units=km
New "Line.SBT_620508" phases=4 bus1="716597.1.2.3.4" bus2="716569.1.2.3.4" linecode="BT107_BT106_7_3_1_4" length=0.02880 units=km
New "Line.SBT_620515" phases=4 bus1="716604.1.2.3.4" bus2="716618.1.2.3.4" linecode="BT107_BT107_7_3_1_4" length=0.00641 units=km
New "Line.SBT_620522" phases=4 bus1="716618.1.2.3.4" bus2="716597.1.2.3.4" linecode="BT107_BT106_7_3_1_4" length=0.00728 units=km
New "Line.SBT_620529" phases=4 bus1="716618.1.2.3.4" bus2="716611.1.2.3.4" linecode="BT107_BT107_7_3_1_4" length=0.02913 units=km
New "Line.SBT_620536" phases=4 bus1="716618.1.2.3.4" bus2="716625.1.2.3.4" linecode="BT107_BT106_7_3_1_4" length=0.02335 units=km
New "Line.SBT_620697" phases=3 bus1="716800.1.2.4" bus2="716793.1.2.4" linecode="BT107_BT107_7_2_1_3" length=0.02283 units=km
New "Line.SBT_620704" phases=3 bus1="716807.1.2.4" bus2="716800.1.2.4" linecode="BT107_BT107_7_2_1_3" length=0.03892 units=km
New "Line.SBT_620711" phases=3 bus1="716821.1.2.4" bus2="716807.1.2.4" linecode="BT108_BT108_7_2_1_3" length=0.03718 units=km
New "Line.SBT_620718" phases=3 bus1="716828.1.2.4" bus2="716835.1.2.4" linecode="BT107_BT107_7_2_1_3" length=0.03455 units=km
New "Line.SBT_620725" phases=3 bus1="716842.1.2.4" bus2="716891.1.2.4" linecode="BT108_BT108_7_2_1_3" length=0.02418 units=km
New "Line.SBT_620732" phases=3 bus1="716849.1.2.4" bus2="716842.1.2.4" linecode="BT108_BT108_7_2_1_3" length=0.03164 units=km
New "Line.SBT_620739" phases=3 bus1="716786.1.2.4" bus2="716849.1.2.4" linecode="BT518_BT518_7_2_1_3" length=0.00050 units=km
New "Line.SBT_620746" phases=3 bus1="716849.1.2.4" bus2="716856.1.2.4" linecode="BT108_BT108_7_2_1_3" length=0.03103 units=km
New "Line.SBT_620753" phases=3 bus1="716856.1.2.4" bus2="2989014.1.2.4" linecode="BT108_BT108_7_2_1_3" length=0.00447 units=km
New "Line.SBT_620760" phases=3 bus1="716863.1.2.4" bus2="716870.1.2.4" linecode="BT107_BT107_7_2_1_3" length=0.03419 units=km
New "Line.SBT_620767" phases=3 bus1="716877.1.2.4" bus2="716884.1.2.4" linecode="BT108_BT108_7_2_1_3" length=0.02880 units=km
New "Line.SBT_620781" phases=3 bus1="716891.1.2.4" bus2="716814.1.2.4" linecode="BT107_BT107_7_2_1_3" length=0.03048 units=km
New "Line.SBT_620788" phases=3 bus1="716891.1.2.4" bus2="716821.1.2.4" linecode="BT108_BT108_7_2_1_3" length=0.00633 units=km
New "Line.SBT_620795" phases=3 bus1="716891.1.2.4" bus2="716828.1.2.4" linecode="BT107_BT107_7_2_1_3" length=0.00500 units=km
New "Line.SBT_621054" phases=3 bus1="717171.1.2.4" bus2="717164.1.2.4" linecode="BT108_BT108_7_2_1_3" length=0.03548 units=km
New "Line.SBT_621061" phases=3 bus1="717192.1.2.4" bus2="717241.1.2.4" linecode="BT108_BT108_7_2_1_3" length=0.02155 units=km
New "Line.SBT_621068" phases=3 bus1="717199.1.2.4" bus2="717192.1.2.4" linecode="BT108_BT108_7_2_1_3" length=0.03140 units=km
New "Line.SBT_621075" phases=3 bus1="717157.1.2.4" bus2="717199.1.2.4" linecode="BT518_BT518_7_2_1_3" length=0.00050 units=km
New "Line.SBT_621082" phases=3 bus1="717199.1.2.4" bus2="717206.1.2.4" linecode="BT108_BT108_7_2_1_3" length=0.03140 units=km
New "Line.SBT_621089" phases=3 bus1="717206.1.2.4" bus2="717248.1.2.4" linecode="BT108_BT108_7_2_1_3" length=0.00807 units=km
New "Line.SBT_621096" phases=3 bus1="717227.1.2.4" bus2="717234.1.2.4" linecode="BT108_BT108_7_2_1_3" length=0.02917 units=km
New "Line.SBT_621103" phases=3 bus1="717241.1.2.4" bus2="717178.1.2.4" linecode="BT107_BT107_7_2_1_3" length=0.00825 units=km
New "Line.SBT_621110" phases=3 bus1="717241.1.2.4" bus2="717171.1.2.4" linecode="BT108_BT108_7_2_1_3" length=0.01487 units=km
New "Line.SBT_621117" phases=3 bus1="717241.1.2.4" bus2="717185.1.2.4" linecode="BT107_BT107_7_2_1_3" length=0.01836 units=km
New "Line.SBT_621124" phases=3 bus1="717248.1.2.4" bus2="717213.1.2.4" linecode="BT107_BT107_7_2_1_3" length=0.00781 units=km
New "Line.SBT_621131" phases=3 bus1="717248.1.2.4" bus2="717220.1.2.4" linecode="BT107_BT107_7_2_1_3" length=0.01530 units=km
New "Line.SBT_621138" phases=3 bus1="717248.1.2.4" bus2="717227.1.2.4" linecode="BT108_BT108_7_2_1_3" length=0.02595 units=km
New "Line.SBT_622335" phases=4 bus1="718403.1.2.3.4" bus2="718396.1.2.3.4" linecode="BT108_BT107_7_3_1_4" length=0.03548 units=km
New "Line.SBT_622342" phases=4 bus1="718410.1.2.3.4" bus2="718403.1.2.3.4" linecode="BT108_BT107_7_3_1_4" length=0.03355 units=km
New "Line.SBT_622349" phases=4 bus1="718417.1.2.3.4" bus2="718410.1.2.3.4" linecode="BT108_BT107_7_3_1_4" length=0.03637 units=km
New "Line.SBT_622356" phases=4 bus1="718389.1.2.3.4" bus2="718417.1.2.3.4" linecode="BT518_BT518_7_3_1_4" length=0.00050 units=km
New "Line.SBT_622363" phases=4 bus1="718417.1.2.3.4" bus2="718424.1.2.3.4" linecode="BT108_BT107_7_3_1_4" length=0.03681 units=km
New "Line.SBT_622370" phases=4 bus1="718424.1.2.3.4" bus2="718431.1.2.3.4" linecode="BT108_BT107_7_3_1_4" length=0.03562 units=km
New "Line.SBT_624337" phases=4 bus1="720335.1.2.3.4" bus2="720321.1.2.3.4" linecode="BT803_BT803_4_3_4_4" length=0.03054 units=km
New "Line.SBT_624344" phases=4 bus1="720335.1.2.3.4" bus2="720328.1.2.3.4" linecode="BT810_BT810_4_3_4_4" length=0.01020 units=km
New "Line.SBT_624351" phases=4 bus1="720342.1.2.3.4" bus2="720335.1.2.3.4" linecode="BT803_BT803_4_3_4_4" length=0.02974 units=km
New "Line.SBT_624358" phases=4 bus1="720342.1.2.3.4" bus2="720356.1.2.3.4" linecode="BT803_BT803_4_3_4_4" length=0.03407 units=km
New "Line.SBT_624365" phases=4 bus1="720349.1.2.3.4" bus2="720342.1.2.3.4" linecode="BT803_BT803_4_3_4_4" length=0.02721 units=km
New "Line.SBT_624372" phases=4 bus1="957166.1.2.3.4" bus2="957201.1.2.3.4" linecode="BT518_BT518_7_3_1_4" length=0.00050 units=km
New "Line.SBT_624386" phases=4 bus1="957201.1.2.3.4" bus2="11131505.1.2.3.4" linecode="BT809_BT809_4_3_4_4" length=0.02237 units=km
New "Line.SBT_624393" phases=4 bus1="957201.1.2.3.4" bus2="957194.1.2.3.4" linecode="BT108_BT107_7_3_1_4" length=0.01922 units=km
New "Line.SBT_624400" phases=4 bus1="957201.1.2.3.4" bus2="957208.1.2.3.4" linecode="BT108_BT107_7_3_1_4" length=0.03254 units=km
New "Line.SBT_624407" phases=4 bus1="720356.1.2.3.4" bus2="720370.1.2.3.4" linecode="BT803_BT803_4_3_4_4" length=0.02767 units=km
New "Line.SBT_624414" phases=4 bus1="720363.1.2.3.4" bus2="720349.1.2.3.4" linecode="BT803_BT803_4_3_4_4" length=0.03663 units=km
New "Line.SBT_624421" phases=4 bus1="720377.1.2.3.4" bus2="134253872.1.2.3.4" linecode="BT803_BT803_4_3_4_4" length=0.01629 units=km
New "Line.SBT_624428" phases=4 bus1="720314.1.2.3.4" bus2="720377.1.2.3.4" linecode="BT518_BT518_7_3_1_4" length=0.00050 units=km
New "Line.SBT_624435" phases=4 bus1="720377.1.2.3.4" bus2="720384.1.2.3.4" linecode="BT803_BT803_4_3_4_4" length=0.03624 units=km
New "Line.SBT_624442" phases=4 bus1="720384.1.2.3.4" bus2="720391.1.2.3.4" linecode="BT803_BT803_4_3_4_4" length=0.03307 units=km
New "Line.SBT_624449" phases=4 bus1="720391.1.2.3.4" bus2="720398.1.2.3.4" linecode="BT803_BT803_4_3_4_4" length=0.03513 units=km
New "Line.SBT_624463" phases=4 bus1="722918.1.2.3.4" bus2="3000368.1.2.3.4" linecode="BT808_BT808_4_3_3_4" length=0.01487 units=km
New "Line.SBT_625023" phases=4 bus1="720972.1.2.3.4" bus2="720965.1.2.3.4" linecode="BT108_BT107_7_3_1_4" length=0.03663 units=km
New "Line.SBT_625030" phases=4 bus1="720979.1.2.3.4" bus2="720972.1.2.3.4" linecode="BT108_BT107_7_3_1_4" length=0.03385 units=km
New "Line.SBT_625037" phases=4 bus1="720986.1.2.3.4" bus2="720979.1.2.3.4" linecode="BT108_BT107_7_3_1_4" length=0.03385 units=km
New "Line.SBT_625044" phases=4 bus1="720958.1.2.3.4" bus2="720986.1.2.3.4" linecode="BT513_BT513_7_3_1_4" length=0.00050 units=km
New "Line.SBT_625051" phases=4 bus1="720986.1.2.3.4" bus2="720993.1.2.3.4" linecode="BT108_BT107_7_3_1_4" length=0.03442 units=km
New "Line.SBT_625058" phases=4 bus1="720993.1.2.3.4" bus2="721000.1.2.3.4" linecode="BT810_BT810_4_3_4_4" length=0.04002 units=km
New "Line.SBT_625065" phases=4 bus1="720993.1.2.3.4" bus2="721007.1.2.3.4" linecode="BT108_BT107_7_3_1_4" length=0.04203 units=km
New "Line.SBT_625072" phases=4 bus1="721007.1.2.3.4" bus2="721014.1.2.3.4" linecode="BT108_BT107_7_3_1_4" length=0.03082 units=km
New "Line.SBT_625079" phases=4 bus1="721014.1.2.3.4" bus2="721021.1.2.3.4" linecode="BT803_BT803_4_3_4_4" length=0.02721 units=km
New "Line.SBT_625086" phases=4 bus1="721021.1.2.3.4" bus2="721028.1.2.3.4" linecode="BT803_BT803_4_3_4_4" length=0.00539 units=km
New "Line.SBT_625093" phases=4 bus1="721028.1.2.3.4" bus2="721035.1.2.3.4" linecode="BT803_BT803_4_3_4_4" length=0.03586 units=km
New "Line.SBT_625100" phases=4 bus1="721035.1.2.3.4" bus2="721042.1.2.3.4" linecode="BT810_BT810_4_3_4_4" length=0.00600 units=km
New "Line.SBT_625107" phases=4 bus1="721035.1.2.3.4" bus2="721049.1.2.3.4" linecode="BT803_BT803_4_3_4_4" length=0.02908 units=km
New "Line.SBT_625114" phases=4 bus1="721042.1.2.3.4" bus2="3221071.1.2.3.4" linecode="BT810_BT810_4_3_4_4" length=0.03062 units=km
New "Line.SBT_625121" phases=4 bus1="721049.1.2.3.4" bus2="2921471.1.2.3.4" linecode="BT803_BT803_4_3_4_4" length=0.01563 units=km
New "Line.SBT_625135" phases=4 bus1="721070.1.2.3.4" bus2="721252.1.2.3.4" linecode="BT810_BT810_4_3_4_4" length=0.01530 units=km
New "Line.SBT_625142" phases=4 bus1="721077.1.2.3.4" bus2="721084.1.2.3.4" linecode="BT106_BT106_7_3_1_4" length=0.03438 units=km
New "Line.SBT_625149" phases=4 bus1="721091.1.2.3.4" bus2="721245.1.2.3.4" linecode="BT106_BT106_7_3_1_4" length=0.02103 units=km
New "Line.SBT_625156" phases=4 bus1="721105.1.2.3.4" bus2="721112.1.2.3.4" linecode="BT106_BT106_7_3_1_4" length=0.03552 units=km
New "Line.SBT_625163" phases=4 bus1="721119.1.2.3.4" bus2="721238.1.2.3.4" linecode="BT111_BT108_7_3_1_4" length=0.02103 units=km
New "Line.SBT_625177" phases=4 bus1="721133.1.2.3.4" bus2="721126.1.2.3.4" linecode="BT107_BT107_7_3_1_4" length=0.03141 units=km
New "Line.SBT_625184" phases=4 bus1="721140.1.2.3.4" bus2="721154.1.2.3.4" linecode="BT107_BT107_7_3_1_4" length=0.04457 units=km
New "Line.SBT_625191" phases=4 bus1="721056.1.2.3.4" bus2="721147.1.2.3.4" linecode="BT513_BT513_7_3_1_4" length=0.00050 units=km
New "Line.SBT_625198" phases=4 bus1="721147.1.2.3.4" bus2="721224.1.2.3.4" linecode="BT111_BT108_7_3_1_4" length=0.03257 units=km
New "Line.SBT_625205" phases=4 bus1="721147.1.2.3.4" bus2="721231.1.2.3.4" linecode="BT111_BT108_7_3_1_4" length=0.01514 units=km
New "Line.SBT_625212" phases=4 bus1="721161.1.2.3.4" bus2="721210.1.2.3.4" linecode="BT809_BT809_4_3_4_4" length=0.00721 units=km
New "Line.SBT_625219" phases=4 bus1="721168.1.2.3.4" bus2="721161.1.2.3.4" linecode="BT809_BT809_4_3_4_4" length=0.04046 units=km
New "Line.SBT_625226" phases=4 bus1="721175.1.2.3.4" bus2="721168.1.2.3.4" linecode="BT108_BT107_7_3_1_4" length=0.02747 units=km
New "Line.SBT_625233" phases=4 bus1="721182.1.2.3.4" bus2="721196.1.2.3.4" linecode="BT108_BT107_7_3_1_4" length=0.03537 units=km
New "Line.SBT_625240" phases=4 bus1="721189.1.2.3.4" bus2="721203.1.2.3.4" linecode="BT108_BT107_7_3_1_4" length=0.03750 units=km
New "Line.SBT_625247" phases=4 bus1="721210.1.2.3.4" bus2="721217.1.2.3.4" linecode="BT809_BT809_4_3_4_4" length=0.03363 units=km
New "Line.SBT_625254" phases=4 bus1="721210.1.2.3.4" bus2="3189788.1.2.3.4" linecode="BT810_BT810_4_3_4_4" length=0.03312 units=km
New "Line.SBT_625261" phases=4 bus1="721224.1.2.3.4" bus2="721175.1.2.3.4" linecode="BT108_BT107_7_3_1_4" length=0.00906 units=km
New "Line.SBT_625268" phases=4 bus1="721224.1.2.3.4" bus2="721182.1.2.3.4" linecode="BT108_BT107_7_3_1_4" length=0.02089 units=km
New "Line.SBT_625275" phases=4 bus1="721224.1.2.3.4" bus2="721189.1.2.3.4" linecode="BT111_BT108_7_3_1_4" length=0.00707 units=km
New "Line.SBT_625282" phases=4 bus1="721231.1.2.3.4" bus2="721119.1.2.3.4" linecode="BT111_BT108_7_3_1_4" length=0.02436 units=km
New "Line.SBT_625289" phases=4 bus1="721231.1.2.3.4" bus2="721133.1.2.3.4" linecode="BT107_BT107_7_3_1_4" length=0.00609 units=km
New "Line.SBT_625296" phases=4 bus1="721231.1.2.3.4" bus2="721140.1.2.3.4" linecode="BT107_BT107_7_3_1_4" length=0.03159 units=km
New "Line.SBT_625303" phases=4 bus1="721238.1.2.3.4" bus2="721091.1.2.3.4" linecode="BT111_BT108_7_3_1_4" length=0.01301 units=km
New "Line.SBT_625310" phases=4 bus1="721238.1.2.3.4" bus2="721098.1.2.3.4" linecode="BT106_BT106_7_3_1_4" length=0.00633 units=km
New "Line.SBT_625317" phases=4 bus1="721238.1.2.3.4" bus2="721105.1.2.3.4" linecode="BT106_BT106_7_3_1_4" length=0.03127 units=km
New "Line.SBT_625324" phases=4 bus1="721245.1.2.3.4" bus2="721063.1.2.3.4" linecode="BT106_BT106_7_3_1_4" length=0.01171 units=km
New "Line.SBT_625331" phases=4 bus1="721245.1.2.3.4" bus2="721070.1.2.3.4" linecode="BT106_BT106_7_3_1_4" length=0.00539 units=km
New "Line.SBT_625338" phases=4 bus1="721245.1.2.3.4" bus2="721077.1.2.3.4" linecode="BT106_BT106_7_3_1_4" length=0.03636 units=km
New "Line.SBT_625345" phases=4 bus1="721252.1.2.3.4" bus2="721259.1.2.3.4" linecode="BT810_BT810_4_3_4_4" length=0.03608 units=km
New "Line.SBT_625443" phases=4 bus1="723401.1.2.3.4" bus2="723408.1.2.3.4" linecode="BT107_BT107_7_3_1_4" length=0.03537 units=km
New "Line.SBT_625471" phases=3 bus1="721609.1.2.4" bus2="721602.1.2.4" linecode="BT106_BT106_7_2_1_3" length=0.00641 units=km
New "Line.SBT_625618" phases=4 bus1="721595.1.2.3.4" bus2="721609.1.2.3.4" linecode="BT107_BT107_7_3_1_4" length=0.03964 units=km
...
